network/quebec_735kv.m
function mpc = quebec_735kv
%% Exported from PyPSA network elec_735kv_shunt.nc, snapshot 2022-01-03 17:00:00
%% Total load: 34959.0 MW, total generation (incl. storage): 34959.0 MW
%% Generator Qmax/Qmin are a generic assumption (not measured) -- see script docstring.

mpc.version = '2';

mpc.baseMVA = 100.0;

%% bus data
%	bus_i	type	Pd	Qd	Gs	Bs	area	Vm	Va	baseKV	zone	Vmax	Vmin
mpc.bus = [
	1	1	11.594	3.81077	0	2.1584	1	1	-33.2652	735	1	1.05	0.95;
	2	2	471.883	155.101	0	0	1	1	-31.5521	735	1	1.05	0.95;
	3	3	3.20646	1.05391	0	0	1	1	0	735	1	1.05	0.95;
	4	2	30.8676	10.1457	0	0	1	1	46.3302	735	1	1.05	0.95;
	5	1	1751.47	575.679	0	0	1	1	-18.1433	735	1	1.05	0.95;
	6	2	1556.63	511.64	0	0	1	1	-18.766	735	1	1.05	0.95;
	7	1	17.9779	5.90904	0	-445.658	1	1	-5.15909	735	1	1.05	0.95;
	8	1	1.8576	0.610565	0	0	1	1	37.1163	735	1	1.05	0.95;
	9	1	75.3815	24.7767	0	0	1	1	-25.8618	735	1	1.05	0.95;
	10	2	7.70256	2.53171	0	0	1	1	34.2319	735	1	1.05	0.95;
	11	1	533.352	175.304	0	109.417	1	1	-34.7551	735	1	1.05	0.95;
	12	1	125.456	41.2355	0	0	1	1	-27.8265	735	1	1.05	0.95;
	13	1	143.221	47.0745	0	0	1	1	-25.287	735	1	1.05	0.95;
	14	2	174.12	57.2303	0	0	1	1	61.0026	735	1	1.05	0.95;
	15	1	1321.62	434.396	0	0	1	1	-25.4378	735	1	1.05	0.95;
	16	2	64.0149	21.0407	0	0	1	1	24.8568	735	1	1.05	0.95;
	17	1	241.036	79.2247	0	-200.807	1	1	-21.1499	735	1	1.05	0.95;
	18	2	179.35	58.9496	0	0	1	1	-7.34236	735	1	1.05	0.95;
	19	1	809.876	266.193	0	0	1	1	-33.977	735	1	1.05	0.95;
	20	2	5.09247	1.67382	0	0	1	1	19.8003	735	1	1.05	0.95;
	21	1	257.91	84.7708	0	0	1	1	-33.6507	735	1	1.05	0.95;
	22	2	375.808	123.522	0	0	1	1	-20.5761	735	1	1.05	0.95;
	23	1	24.3408	8.00045	0	-27.3362	1	1	-8.93869	735	1	1.05	0.95;
	24	1	0.0193659	0.00636526	0	0	1	1	6.37879	735	1	1.05	0.95;
	25	1	240.359	79.0022	0	0	1	1	-26.9407	735	1	1.05	0.95;
	26	1	753.923	247.802	0	0	1	1	-33.941	735	1	1.05	0.95;
	27	1	474.442	155.942	0	0	1	1	-32.4014	735	1	1.05	0.95;
	28	1	2.03026	0.667315	0	-518.056	1	1	1.64941	735	1	1.05	0.95;
	29	1	156.089	51.3039	0	-243.155	1	1	-5.91317	735	1	1.05	0.95;
	30	1	793.962	260.963	0	-350.209	1	1	-1.55547	735	1	1.05	0.95;
	31	1	494.299	162.468	0	0	1	1	-32.5926	735	1	1.05	0.95;
	32	1	61.2374	20.1278	0	0	1	1	-33.383	735	1	1.05	0.95;
	33	1	540.596	177.685	0	0	1	1	-34.4458	735	1	1.05	0.95;
	34	1	3243.21	1065.99	0	-417.526	1	1	-15.9177	735	1	1.05	0.95;
	35	1	99.1493	32.5888	0	0	1	1	-32.393	735	1	1.05	0.95;
	36	1	0.840801	0.276358	0	-1017.3	1	1	15.0098	735	1	1.05	0.95;
	37	2	726.527	238.798	0	0	1	1	-29.5258	735	1	1.05	0.95;
	38	1	203.313	66.8258	0	0	1	1	-24.184	735	1	1.05	0.95;
	39	2	36.5621	12.0174	0	0	1	1	47.4523	735	1	1.05	0.95;
	40	1	11999.2	3943.96	0	3096.27	1	1	-38.584	735	1	1.05	0.95;
	41	1	41.1376	13.5213	0	0	1	1	-35.4214	735	1	1.05	0.95;
	42	1	40.4871	13.3075	0	0	1	1	-32.2848	735	1	1.05	0.95;
	43	2	6.20167	2.03839	0	0	1	1	7.11258	735	1	1.05	0.95;
	44	1	2103.14	691.27	0	-370.095	1	1	-13.4447	735	1	1.05	0.95;
	45	1	184.793	60.7384	0	-892.795	1	1	46.648	735	1	1.05	0.95;
	46	1	983.134	323.14	0	0	1	1	-28.5872	735	1	1.05	0.95;
	47	1	318.604	104.72	0	48.8931	1	1	-38.028	735	1	1.05	0.95;
	48	1	386.949	127.184	0	0	1	1	-34.7201	735	1	1.05	0.95;
	49	1	117.978	38.7775	0	0	1	1	-25.4527	735	1	1.05	0.95;
	50	1	82.3521	27.0678	0	0	1	1	-21.964	735	1	1.05	0.95;
	51	1	85.5037	28.1037	0	0	1	1	-32.2009	735	1	1.05	0.95;
	52	1	61.59	20.2437	0	0	1	1	-20.5541	735	1	1.05	0.95;
	53	2	520.019	170.922	0	0	1	1	17.843	735	1	1.05	0.95;
	54	1	86.4162	28.4036	0	0	1	1	-35.1821	735	1	1.05	0.95;
	55	1	15.4252	5.07002	0	-1623.44	1	1	1.01243	735	1	1.05	0.95;
	56	2	2.65672	0.873223	0	0	1	1	12.1005	735	1	1.05	0.95;
	57	1	102.806	33.7907	0	0	1	1	-31.7426	735	1	1.05	0.95;
	58	1	1810.22	594.991	0	512.037	1	1	-38.0983	735	1	1.05	0.95;
];

%% generator data
%	bus	Pg	Qg	Qmax	Qmin	Vg	mBase	status	Pmax	Pmin	Pc1	Pc2	Qc1min	Qc1max	Qc2min	Qc2max	ramp_agc	ramp_10	ramp_30	ramp_q	apf
mpc.gen = [
	43	1298	0	821.781	-821.781	1	1326	1	1326	0	0	0	0	0	0	0	0	0	0	0	0;
	3	1467.93	0	2505.01	-2505.01	1	4042	1	4042	0	0	0	0	0	0	0	0	0	0	0	0;
	17	0	0	65.4922	-65.4922	1	105.676	1	105.676	0	0	0	0	0	0	0	0	0	0	0	0;
	2	1989.25	0	1258.7	-1258.7	1	2031	1	2031	0	0	0	0	0	0	0	0	0	0	0	0;
	37	1448.91	0	907.925	-907.925	1	1465	1	1465	0	0	0	0	0	0	0	0	0	0	0	0;
	44	222.024	0	1046.43	-1046.43	1	1688.49	1	1688.49	0	0	0	0	0	0	0	0	0	0	0	0;
	6	0	0	254.715	-254.715	1	411	1	411	0	0	0	0	0	0	0	0	0	0	0	0;
	6	0	0	888.094	-888.094	1	1433	1	1433	0	0	0	0	0	0	0	0	0	0	0	0;
	6	0	0	1.31003	-1.31003	1	2.11382	1	2.11382	0	0	0	0	0	0	0	0	0	0	0	0;
	26	0	0	81.9962	-81.9962	1	132.306	1	132.306	0	0	0	0	0	0	0	0	0	0	0	0;
	26	0	0	3.72854	-3.72854	1	6.01626	1	6.01626	0	0	0	0	0	0	0	0	0	0	0	0;
	31	0	0	16.1111	-16.1111	1	25.9963	1	25.9963	0	0	0	0	0	0	0	0	0	0	0	0;
	34	0	0	482.808	-482.808	1	779.044	1	779.044	0	0	0	0	0	0	0	0	0	0	0	0;
	34	0	0	238.602	-238.602	1	385	1	385	0	0	0	0	0	0	0	0	0	0	0	0;
	18	295.622	0	187.163	-187.163	1	302	1	302	0	0	0	0	0	0	0	0	0	0	0	0;
	4	0	0	197.698	-197.698	1	319	1	319	0	0	0	0	0	0	0	0	0	0	0	0;
	30	402.32	0	254.715	-254.715	1	411	1	411	0	0	0	0	0	0	0	0	0	0	0	0;
	22	170.66	0	199.129	-199.129	1	321.308	1	321.308	0	0	0	0	0	0	0	0	0	0	0	0;
	20	0	0	4785.67	-4785.67	1	7722	1	7722	0	0	0	0	0	0	0	0	0	0	0	0;
	54	0	0	1.15887	-1.15887	1	1.86992	1	1.86992	0	0	0	0	0	0	0	0	0	0	0	0;
	56	0	0	92.9617	-92.9617	1	150	1	150	0	0	0	0	0	0	0	0	0	0	0	0;
	53	0	0	889.953	-889.953	1	1436	1	1436	0	0	0	0	0	0	0	0	0	0	0	0;
	16	318.228	0	274.085	-274.085	1	442.254	1	442.254	0	0	0	0	0	0	0	0	0	0	0	0;
	16	0	0	167.331	-167.331	1	270	1	270	0	0	0	0	0	0	0	0	0	0	0	0;
	14	0	0	3363.97	-3363.97	1	5428	1	5428	0	0	0	0	0	0	0	0	0	0	0	0;
	10	0	0	1497.92	-1497.92	1	2417	1	2417	0	0	0	0	0	0	0	0	0	0	0	0;
	39	0	0	396.636	-396.636	1	640	1	640	0	0	0	0	0	0	0	0	0	0	0	0;
	43	3887.14	0	2492.61	-2492.61	1	4022	1	4022	0	0	0	0	0	0	0	0	0	0	0	0;
	3	1101.24	0	697.212	-697.212	1	1125	1	1125	0	0	0	0	0	0	0	0	0	0	0	0;
	37	2.2e-06	0	71.8903	-71.8903	1	116	1	116	0	0	0	0	0	0	0	0	0	0	0	0;
	18	212.417	0	134.485	-134.485	1	217	1	217	0	0	0	0	0	0	0	0	0	0	0	0;
	4	4038.87	0	2557.07	-2557.07	1	4126	1	4126	0	0	0	0	0	0	0	0	0	0	0	0;
	39	626.484	0	396.636	-396.636	1	640	1	640	0	0	0	0	0	0	0	0	0	0	0	0;
	20	7558.93	0	4785.67	-4785.67	1	7722	1	7722	0	0	0	0	0	0	0	0	0	0	0	0;
	10	2365.96	0	1497.92	-1497.92	1	2417	1	2417	0	0	0	0	0	0	0	0	0	0	0	0;
	56	751.781	0	773.441	-773.441	1	1248	1	1248	0	0	0	0	0	0	0	0	0	0	0	0;
	14	5313.37	0	3363.97	-3363.97	1	5428	1	5428	0	0	0	0	0	0	0	0	0	0	0	0;
	16	1489.86	0	943.251	-943.251	1	1522	1	1522	0	0	0	0	0	0	0	0	0	0	0	0;
];

%% branch data
%	fbus	tbus	r	x	b	rateA	rateB	rateC	ratio	angle	status	angmin	angmax
mpc.branch = [
	57	19	0.000145918	0.0048153	2.08667	23634.1	23634.1	23634.1	0	0	1	-360	360;
	34	6	9.31012e-05	0.00307234	1.33138	21816.8	21816.8	21816.8	0	0	1	-360	360;
	54	26	6.4015e-05	0.0021125	0.915435	21816.8	21816.8	21816.8	0	0	1	-360	360;
	26	48	8.67356e-05	0.00286227	1.24035	21816.8	21816.8	21816.8	0	0	1	-360	360;
	53	56	0.000533939	0.005286	17.1799	8941.44	8941.44	8941.44	0	0	1	-360	360;
	20	53	4.74675e-05	0.00156643	0.6788	21816.8	21816.8	21816.8	0	0	1	-360	360;
	56	36	9.4619e-05	0.00312243	1.35308	21816.8	21816.8	21816.8	0	0	1	-360	360;
	8	36	0.000662024	0.0218468	9.46715	7095.2	7095.2	7095.2	0	0	1	-360	360;
	4	8	0.000358223	0.0118213	5.1227	12793.9	12793.9	12793.9	0	0	1	-360	360;
	10	36	0.000809317	0.0267074	11.5735	5905.45	5905.45	5905.45	0	0	1	-360	360;
	20	56	0.000281711	0.00278893	36.2569	17046.6	17046.6	17046.6	0	0	1	-360	360;
	56	30	0.000638026	0.00631645	9.12396	7343.78	7343.78	7343.78	0	0	1	-360	360;
	10	20	0.000484046	0.0159735	6.922	9547.94	9547.94	9547.94	0	0	1	-360	360;
	39	16	0.000646633	0.0213389	9.24706	7252.41	7252.41	7252.41	0	0	1	-360	360;
	54	58	4.10894e-05	0.00135595	0.587591	21816.8	21816.8	21816.8	0	0	1	-360	360;
	31	54	0.000138061	0.00455601	1.97431	21816.8	21816.8	21816.8	0	0	1	-360	360;
	49	25	4.8087e-05	0.00158687	0.687658	21816.8	21816.8	21816.8	0	0	1	-360	360;
	43	24	1.52168e-05	0.000502153	0.217604	21816.8	21816.8	21816.8	0	0	1	-360	360;
	43	7	0.00070419	0.0232383	10.0701	6701.09	6701.09	6701.09	0	0	1	-360	360;
	13	12	0.000105138	0.00346955	1.5035	21816.8	21816.8	21816.8	0	0	1	-360	360;
	15	37	0.000167668	0.00553305	2.39771	21816.8	21816.8	21816.8	0	0	1	-360	360;
	7	18	0.000328366	0.0108361	4.69574	13934.6	13934.6	13934.6	0	0	1	-360	360;
	44	17	0.000184111	0.00607565	2.63284	21816.8	21816.8	21816.8	0	0	1	-360	360;
	44	52	0.000198869	0.00656267	2.84389	21816.8	21816.8	21816.8	0	0	1	-360	360;
	44	23	7.46063e-05	0.00246201	1.06689	21816.8	21816.8	21816.8	0	0	1	-360	360;
	44	34	7.30079e-05	0.00240926	1.04404	21816.8	21816.8	21816.8	0	0	1	-360	360;
	40	47	4.87138e-05	0.00160756	0.696623	21816.8	21816.8	21816.8	0	0	1	-360	360;
	47	1	0.000133726	0.00441296	1.91233	21816.8	21816.8	21816.8	0	0	1	-360	360;
	9	12	0.000165618	0.0054654	2.36839	21816.8	21816.8	21816.8	0	0	1	-360	360;
	44	17	0.000184408	0.00608547	2.6371	21816.8	21816.8	21816.8	0	0	1	-360	360;
	49	25	4.7909e-05	0.001581	0.685114	21816.8	21816.8	21816.8	0	0	1	-360	360;
	6	35	0.000406789	0.013424	5.81721	11299.5	11299.5	11299.5	0	0	1	-360	360;
	30	5	0.000802275	0.00794252	11.4728	5951.85	5951.85	5951.85	0	0	1	-360	360;
	6	7	0.000504351	0.0166436	7.21237	9178.12	9178.12	9178.12	0	0	1	-360	360;
	29	23	4.9715e-05	0.0016406	0.71094	21816.8	21816.8	21816.8	0	0	1	-360	360;
	58	40	3.7503e-05	0.0012376	0.536305	21816.8	21816.8	21816.8	0	0	1	-360	360;
	51	40	0.000156552	0.00516621	2.23874	21816.8	21816.8	21816.8	0	0	1	-360	360;
	1	35	2.43383e-05	0.000803163	0.348045	21816.8	21816.8	21816.8	0	0	1	-360	360;
	6	31	0.000492008	0.0162363	7.03587	9399.2	9399.2	9399.2	0	0	1	-360	360;
	3	44	0.00069523	0.00688278	22.3695	7119.33	7119.33	7119.33	0	0	1	-360	360;
	37	2	0.00024714	0.0081556	3.53417	18446.3	18446.3	18446.3	0	0	1	-360	360;
	2	26	0.000121683	0.00401553	1.7401	21816.8	21816.8	21816.8	0	0	1	-360	360;
	43	24	1.46308e-05	0.000482818	0.209226	21816.8	21816.8	21816.8	0	0	1	-360	360;
	3	44	0.000700618	0.00693611	22.5429	7074.33	7074.33	7074.33	0	0	1	-360	360;
	16	3	0.000481624	0.0158936	6.88737	9594.17	9594.17	9594.17	0	0	1	-360	360;
	5	46	0.00047419	0.00469448	6.78106	9739.1	9739.1	9739.1	0	0	1	-360	360;
	5	15	0.000492505	0.0048758	7.04298	9390.08	9390.08	9390.08	0	0	1	-360	360;
	45	39	0.000690727	0.022794	9.8776	6821.47	6821.47	6821.47	0	0	1	-360	360;
	45	39	0.000690173	0.0227757	9.86968	6826.52	6826.52	6826.52	0	0	1	-360	360;
	45	39	0.000690832	0.0227975	9.87912	6820.5	6820.5	6820.5	0	0	1	-360	360;
	55	18	0.000553897	0.0182786	7.9209	8391.98	8391.98	8391.98	0	0	1	-360	360;
	4	8	0.000367992	0.0121437	5.2624	12461.2	12461.2	12461.2	0	0	1	-360	360;
	4	8	0.000368218	0.0121512	5.26564	12453.7	12453.7	12453.7	0	0	1	-360	360;
	55	18	0.000553671	0.0182711	7.91766	8395.25	8395.25	8395.25	0	0	1	-360	360;
	36	55	0.000689458	0.0227521	9.85947	6833.06	6833.06	6833.06	0	0	1	-360	360;
	56	30	0.000637972	0.00631592	9.1232	7344.36	7344.36	7344.36	0	0	1	-360	360;
	30	5	0.000758019	0.00750439	10.8399	6264.55	6264.55	6264.55	0	0	1	-360	360;
	5	37	0.000644211	0.00637769	9.21241	7277.87	7277.87	7277.87	0	0	1	-360	360;
	30	55	0.000177296	0.00585076	2.53538	21816.8	21816.8	21816.8	0	0	1	-360	360;
	53	56	0.000533944	0.00528604	17.18	8941.37	8941.37	8941.37	0	0	1	-360	360;
	55	18	0.000565677	0.0186674	8.08936	8225.83	8225.83	8225.83	0	0	1	-360	360;
	18	6	0.000682622	0.0225265	9.7617	6896.33	6896.33	6896.33	0	0	1	-360	360;
	56	30	0.000700046	0.00693045	10.0109	6737.63	6737.63	6737.63	0	0	1	-360	360;
	36	55	0.000734149	0.0242269	10.4986	6449.82	6449.82	6449.82	0	0	1	-360	360;
	36	28	0.000655292	0.0216246	9.37088	7163.02	7163.02	7163.02	0	0	1	-360	360;
	10	8	0.000321337	0.0106041	4.59522	14234.3	14234.3	14234.3	0	0	1	-360	360;
	18	6	0.000682966	0.0225379	9.76663	6893.11	6893.11	6893.11	0	0	1	-360	360;
	8	36	0.000662312	0.0218563	9.47126	7092.33	7092.33	7092.33	0	0	1	-360	360;
	39	16	0.000646588	0.0213374	9.24641	7252.89	7252.89	7252.89	0	0	1	-360	360;
	39	16	0.000646659	0.0213397	9.24742	7252.15	7252.15	7252.15	0	0	1	-360	360;
	21	32	1.13819e-05	0.000375603	0.162765	21816.8	21816.8	21816.8	0	0	1	-360	360;
	3	29	0.000308902	0.00305813	39.7566	15728.4	15728.4	15728.4	0	0	1	-360	360;
	30	5	0.000758111	0.0075053	10.8412	6263.86	6263.86	6263.86	0	0	1	-360	360;
	52	38	0.000118215	0.0039011	1.69051	21816.8	21816.8	21816.8	0	0	1	-360	360;
	32	27	3.97816e-05	0.00131279	0.568889	21816.8	21816.8	21816.8	0	0	1	-360	360;
	33	21	4.26565e-05	0.00140766	0.610001	21816.8	21816.8	21816.8	0	0	1	-360	360;
	27	12	0.000135979	0.00448732	1.94455	21816.8	21816.8	21816.8	0	0	1	-360	360;
	22	52	1.11758e-05	0.000368801	0.159817	21816.8	21816.8	21816.8	0	0	1	-360	360;
	52	22	1.14896e-05	0.000379155	0.164304	21816.8	21816.8	21816.8	0	0	1	-360	360;
	38	13	4.10604e-05	0.00135499	0.587176	21816.8	21816.8	21816.8	0	0	1	-360	360;
	49	9	3.07838e-05	0.00101587	0.440218	21816.8	21816.8	21816.8	0	0	1	-360	360;
	11	33	3.67415e-05	0.00121247	0.525415	21816.8	21816.8	21816.8	0	0	1	-360	360;
	17	50	2.06223e-05	0.000680534	0.294905	21816.8	21816.8	21816.8	0	0	1	-360	360;
	17	50	2.05619e-05	0.000678544	0.294042	21816.8	21816.8	21816.8	0	0	1	-360	360;
	50	49	8.99674e-05	0.00296892	1.28656	21816.8	21816.8	21816.8	0	0	1	-360	360;
	50	49	9.00496e-05	0.00297164	1.28774	21816.8	21816.8	21816.8	0	0	1	-360	360;
	53	20	4.85722e-05	0.00160288	0.694598	21816.8	21816.8	21816.8	0	0	1	-360	360;
	40	41	2.64074e-05	0.000871443	0.377634	21816.8	21816.8	21816.8	0	0	1	-360	360;
	46	18	0.00087265	0.0287974	12.4792	5524	5524	5524	0	0	1	-360	360;
	40	47	3.05902e-05	0.00100948	0.43745	21816.8	21816.8	21816.8	0	0	1	-360	360;
	40	58	2.04111e-05	0.000673566	0.291885	21816.8	21816.8	21816.8	0	0	1	-360	360;
	42	51	1.68543e-05	0.000556191	2.16919	65450.3	65450.3	65450.3	0	0	1	-360	360;
	24	34	0.000384155	0.0126771	49.4418	13140.5	13140.5	13140.5	0	0	1	-360	360;
	24	3	0.000158144	0.00521877	2.26151	21816.8	21816.8	21816.8	0	0	1	-360	360;
	16	3	0.0004801	0.0158433	6.86558	9623.5	9623.5	9623.5	0	0	1	-360	360;
	16	43	0.000515482	0.0170109	7.37156	8988.02	8988.02	8988.02	0	0	1	-360	360;
	43	7	0.000741885	0.0244822	10.6092	6388.4	6388.4	6388.4	0	0	1	-360	360;
	35	42	2.56873e-05	0.000847682	0.367337	21816.8	21816.8	21816.8	0	0	1	-360	360;
	28	55	3.13011e-05	0.00103294	0.447615	21816.8	21816.8	21816.8	0	0	1	-360	360;
	48	11	2.09939e-05	0.000692798	0.300219	21816.8	21816.8	21816.8	0	0	1	-360	360;
	46	51	7.62934e-05	0.00251768	1.09102	21816.8	21816.8	21816.8	0	0	1	-360	360;
	41	46	0.000214873	0.00709081	3.07275	21191.4	21191.4	21191.4	0	0	1	-360	360;
	41	37	6.64388e-05	0.00219248	0.950096	21816.8	21816.8	21816.8	0	0	1	-360	360;
	25	54	0.000239139	0.00789159	3.41976	19057.6	19057.6	19057.6	0	0	1	-360	360;
	25	26	0.000304453	0.0100469	4.35377	15011.1	15011.1	15011.1	0	0	1	-360	360;
	14	39	0.000418159	0.0137993	5.9798	11000.5	11000.5	11000.5	0	0	1	-360	360;
	14	39	0.000418344	0.0138054	5.98245	10995.7	10995.7	10995.7	0	0	1	-360	360;
	14	39	0.000418529	0.0138115	5.9851	10991	10991	10991	0	0	1	-360	360;
	2	57	1.10379e-05	0.000364252	0	100000	100000	100000	0	0	1	-360	360;
];

%% generator cost data
%	2	startup	shutdown	n	c(n-1)	...	c0
mpc.gencost = [
	2	0	0	3	0.0001	0	0;
	2	0	0	3	0.0001	0	0;
	2	0	0	3	0.0001	-0.1	0;
	2	0	0	3	0.0001	0	0;
	2	0	0	3	0.0001	0	0;
	2	0	0	3	0.0001	-0.1	0;
	2	0	0	3	0.0001	-0.3	0;
	2	0	0	3	0.0001	0	0;
	2	0	0	3	0.0001	0.01	0;
	2	0	0	3	0.0001	-0.1	0;
	2	0	0	3	0.0001	0.01	0;
	2	0	0	3	0.0001	-0.1	0;
	2	0	0	3	0.0001	-0.1	0;
	2	0	0	3	0.0001	0	0;
	2	0	0	3	0.0001	0	0;
	2	0	0	3	0.0001	0	0;
	2	0	0	3	0.0001	0	0;
	2	0	0	3	0.0001	-0.1	0;
	2	0	0	3	0.0001	0	0;
	2	0	0	3	0.0001	0.01	0;
	2	0	0	3	0.0001	0	0;
	2	0	0	3	0.0001	0	0;
	2	0	0	3	0.0001	-0.1	0;
	2	0	0	3	0.0001	0	0;
	2	0	0	3	0.0001	0	0;
	2	0	0	3	0.0001	0	0;
	2	0	0	3	0.0001	0	0;
	2	0	0	3	0.0001	0	0;
	2	0	0	3	0.0001	0	0;
	2	0	0	3	0.0001	0	0;
	2	0	0	3	0.0001	0	0;
	2	0	0	3	0.0001	0	0;
	2	0	0	3	0.0001	0	0;
	2	0	0	3	0.0001	0	0;
	2	0	0	3	0.0001	0	0;
	2	0	0	3	0.0001	0	0;
	2	0	0	3	0.0001	0	0;
	2	0	0	3	0.0001	0	0;
];
